*MATERIAL,NAME=User
*ELASTIC
1.0000E+08,0


*DENSITY
1.0000E+03
*EXPANSION
0.0000E+00

*SOLID SECTION,MATERIAL=User,ELSET=Eall

